[General]
sim-time-limit = 100s
**.d = 3

[Config MaxMinNodeTest]
network = MaxMinNodeTest

[Config PilotStudy]
network = SampleManet2

[Config SmallCluster]
network = NodeCountVariableManet
*.numNodes = 10
*.connectionProbability = 5

[Config LargeDenseCluster]
network = NodeCountVariableManet
*.numNodes = 100
*.connectionProbability = 2