[General]
network = MaxMinNodeTest
sim-time-limit = 100s