[General]
network = SampleManet2 #MaxMinNodeTest
sim-time-limit = 100s